! B3LYP def2-SVP d3 EnGrad 
%pal nprocs 6 end 
*xyz 0 1 
C   -0.49880705898803 1.65891231167891 0.6729287763613
C   -0.25025301229909 0.65612043509711 -0.18998884345452
C   0.24800338235293 -0.65688384441255 0.19023397958645
C   0.49655681419112 -1.65967355965962 -0.67268631584732
C   -1.00961813668942 3.01562655590356 0.30008066385133
C   1.0073683976586 -3.01638994419559 -0.29984727206063
H   -0.31554492833411 1.48150189406705 1.7414046018819
H   -0.42938822977684 0.8204028911157 -1.26115408655112
H   0.4271390737678 -0.82116780646876 1.26139886876741
H   0.31329472654998 -1.48225848073959 -1.74116139344638
H   -0.30522308745019 3.80897351363362 0.60952034429718
H   -1.96587121423292 3.23818873050989 0.80726464270901
H   -1.1700883434908 3.10640966699437 -0.78570426776724
H   1.96362026834885 -3.23894767736979 -0.80703547205035
H   0.30297176388303 -3.80973356771702 -0.6092918124921
H   1.16784059450914 -3.1071821184373 0.78593658621508
*
