! B3LYP def2-SVP d3 EnGrad 
%pal nprocs 6 end 
*xyz 0 1 
N   1.07341917368428 -1.29007713899083 0.85620625312691
B   1.44010751067913 1.32786916349169 -0.63789316158606
B   -2.23303119710133 -0.13965797802173 -0.63314794352319
N   -1.38272556608174 0.37194781377233 0.3374826978841
H   0.68892240916228 -2.0385704746003 1.43600688708577
H   1.94592064454942 -0.99111186499322 1.29410829936468
H   1.32954899819499 -1.71646548184245 -0.03595439490734
H   1.36808791687176 1.9051859905364 0.4173181185533
H   2.33489727497983 0.5414332365382 -0.82702054058193
H   0.69258047891256 1.60873830208557 -1.53562412426006
H   -3.21581583486285 0.48109058163562 -0.96959619116464
H   -1.97212551200453 -1.21425916322944 -1.12878902445274
H   -0.5346921312949 -0.11690502368425 0.64515611953378
H   -1.53509416568891 1.27078203730239 0.78174700492742
*
