! B3LYP def2-SVP d3 EnGrad 
%pal nprocs 6 end 
*xyz 0 1 
C   2.04812091725484 0.62988921909618 -0.2954009405574
C   0.7868710636258 0.66681589708824 0.34397215620128
C   -0.15047955497722 0.1065641407307 -0.5655209817338
C   -0.32300561323794 -1.39879595783232 -0.7195997444325
O   -1.41275430423976 0.68683038251174 -0.68884449143532
H   2.21885326887482 1.2883339966068 -1.15567803814373
H   1.16719418615733 0.02617304213443 -1.359590904652
H   2.98405610141294 0.43094274947958 0.25712649556848
H   0.6248555829033 -1.93094547859645 -0.57629314923792
H   -0.74259515683608 -1.6546984627522 -1.70439634183949
H   -1.04390616032839 -1.74329128695681 0.0457289757495
H   -1.31119095888631 1.6441873473194 -0.59409847285715
H   0.53247504190569 1.02633770132516 1.34948487213748
H   -2.02553818226227 0.3855539848152 1.20439680787211
O   -1.86261915385095 0.35874549537805 2.16187791962296
H   -1.49033707751578 -0.5226427703477 2.2968358377375
*
