! B3LYP def2-SVP d3 EnGrad 
%pal nprocs 6 end 
*xyz 0 1 
C   -3.18397288778485 0.97827242137061 0.98964269738751
C   -2.33741859020878 0.23545296144369 0.00315870441266
C   -2.34029664428221 -1.09751492617647 -0.1812111966755
C   -1.40269957958522 -1.80586987080262 -1.11534531262813
O   -0.14096547661432 -2.1496973142671 -0.51684349635967
Cl   2.59278850182883 -0.72934823491414 1.06024774023774
S   0.8995034591937 0.13762410274072 0.21269617599356
O   -1.49877181367486 1.00649277676866 -0.75258241670189
Cl   1.16864750571241 2.19455596584061 0.70996104667215
H   -3.82253979044658 1.71993655120156 0.47841205743308
H   -2.53983261443912 1.52750366117652 1.7001397793537
H   -3.82655640931093 0.29755224385683 1.56321909744596
H   -1.4050918833852 1.89127266690149 -0.37133694653066
H   -3.03575062548132 -1.69170925795449 0.41724784222595
H   -1.87998204880644 -2.721318258802 -1.51077590052547
H   -1.14801274903582 -1.1650024283771 -1.9712576277352
H   -0.31771535367925 -2.53613906000679 0.35310675599422
*
