! B3LYP def2-SVP d3 EnGrad 
%pal nprocs 6 end 
*xyz 0 1 
C   1.6652085249664 0.47918795013482 -0.71280696831467
C   0.44936725657113 0.866474352715 0.09337060191837
H   2.6168595301472 0.85752994691115 -0.3235666701593
H   1.69860616413406 -0.54191814094151 -1.1069181477332
H   1.07907590801357 0.40828127600419 0.92599526022566
C   -0.75135934825212 0.12147325864247 0.20467566977566
O   -1.94370252443238 0.7089129888136 0.47803835179908
C   -0.82118937845564 -1.33802262685811 -0.03701770768036
H   0.13341299161429 -1.82036330558799 0.23764194687226
H   -0.98201885093836 -1.56794688282765 -1.11065350956753
H   -1.65159938121488 -1.78934784646663 0.52838685769526
H   -1.82357740694317 1.66691632339723 0.54564741269826
H   0.33091651478993 1.94882270606344 0.2772069024705
*
