! B3LYP def2-SVP d3 EnGrad 
%pal nprocs 6 end 
*xyz 0 1 
N   -1.40580158245599 -0.68092273746646 -0.03675328834756
B   -2.36839348684724 0.3209268346999 -0.1394853116925
N   1.56434309412178 0.51870464172537 0.45290318108387
B   2.19224750392152 -0.36857216211869 -0.4087755769584
H   -0.75866811363874 -0.91751532980918 -0.78322967312161
H   -2.41399503628832 0.98759235461211 -1.14493777236132
H   -3.12366468364136 0.50749312026914 0.78453733207667
H   -1.32947348933458 -1.30152631718252 0.7625601511537
H   0.556229696975 0.53556707802843 0.58098984813486
H   2.0636456207979 1.21183242648255 0.99914883062126
H   3.39325431942168 -0.34644838678774 -0.53133437862541
H   1.51749515696834 -1.1618035224529 -1.02901434196356
*
