! B3LYP def2-SVP d3 EnGrad 
%pal nprocs 6 end 
*xyz 0 1 
C   -0.66820083381015 -0.16466065450267 1.21668966037393
O   1.13419097808127 -1.34787774660627 0.39188998412398
C   0.5069409070235 -0.30399268733159 0.23288928181214
F   -0.51997192167313 -0.53406890221381 2.41299671248968
F   -1.8744289237128 0.13028352108266 0.94864364302425
C   0.1719176369323 0.20167149082914 -1.19884159638918
F   1.07447748736787 0.9966941006837 0.88714500087313
F   1.28502379099343 0.44641474042224 -1.87239517717879
F   -0.53110399808521 -0.74131636303105 -1.84473864291892
F   -0.57884512311709 1.31685250066764 -1.17427886621022
*
