! B3LYP def2-SVP d3 EnGrad 
%pal nprocs 6 end 
*xyz 0 1 
C   0.88039201307606 0.08937938566973 -0.04338214343504
O   1.48365253449966 0.20991182104584 -1.13301925408292
N   -1.30714504604656 -0.14127767147728 0.29922423376462
H   -1.56647785775235 0.66313961859851 -0.29157532764497
H   0.35847655977268 -0.9143572707653 0.2319097873993
H   1.38775901720213 0.0806905487211 0.96458726674686
H   -1.41453275403351 -0.92345854690232 -0.36426420032635
H   0.17787553328188 0.93597211510972 0.3365196375785
*
