! B3LYP def2-SVP d3 EnGrad 
%pal nprocs 6 end 
*xyz 0 1 
N   0.55611068389858 -1.27021189309286 -0.27511451340854
B   -1.89776531736424 0.00194551821502 -0.08634400862308
B   0.38782956732042 0.12876571672554 0.53666821687803
N   0.98666771680632 1.22824686770114 -0.21064975701794
H   1.54724650483899 -1.44236803271532 -0.45983829385602
H   0.05214113311208 -1.18837924606453 -1.16564445426956
H   0.15130275118276 -2.06280149006246 0.22955150097224
H   -1.47692241913215 0.2092305507557 -1.21700510717662
H   -2.21856314917162 -1.15916692688828 0.12768024692831
H   -2.6549848806394 0.8532965087118 0.33362978856734
H   -0.91102553030878 0.1810261766321 0.81022285635392
H   0.80570191896875 -0.04714977953767 1.6669743825204
H   1.41247747919319 1.96124920816693 0.34608908333593
H   0.43171554129507 1.6425028214529 -0.95475494120442
*
