! B3LYP def2-SVP d3 EnGrad 
%pal nprocs 6 end 
*xyz 0 1 
C   1.0175141244493 -0.65421322672724 0.03558046501072
O   0.81221450687209 -0.10883321565996 -1.01992779185385
N   -2.03338209600128 0.12500615061095 0.1473242533105
H   -2.40811143167995 1.04347421039877 0.39274383473752
H   2.02711125534512 -1.06427772208828 0.29572561832012
H   0.20789875566169 -0.77240868223693 0.79371842366564
H   -2.81140493336187 -0.386146768392 -0.27436663381333
H   -1.3590271812851 0.2878162540947 -0.60655816937731
*
