! B3LYP def2-SVP d3 EnGrad 
%pal nprocs 6 end 
*xyz 0 1 
C   -3.08994133808147 0.26103293839449 0.39681303697025
C   -1.883853915411 0.1032898497298 -0.0904053156471
C   -0.67410131182931 -0.04002521449876 -0.57658002239333
C   0.52633428131741 0.77731215067505 -0.15368973069047
C   1.58550177470943 -0.02996938728316 0.61754984895551
C   2.21147844208256 -1.17455325620882 -0.1794094667239
H   1.46398144783384 -1.93446896383445 -0.45854351113639
H   -3.81078095384657 0.94410389582388 -0.06819427686654
H   -3.42348232567526 -0.28564187890134 1.28678930524728
H   2.37938407259309 0.66543323446156 0.94230439902166
H   1.12568201728176 -0.42676393745184 1.53970853105612
H   2.99526379401818 -1.68415253952267 0.4036136926358
H   2.67510925269371 -0.806584894725 -1.11077717029083
H   0.99463281652716 1.21246950225551 -1.0564708590653
H   0.18680825858307 1.62175200320043 0.46656485317858
H   -0.51260031279659 -0.81919050211469 -1.33396731425131
*
