! B3LYP def2-SVP d3 EnGrad 
%pal nprocs 6 end 
*xyz 0 1 
C   -2.33121601384444 3.3134461685214 0.201176580084
C   -0.91454997788663 2.8635824415997 -0.04211613257343
O   0.0621620615549 3.55554960413794 0.0916637456494
H   -2.92731201705146 3.17987287748633 -0.7184103041957
H   -2.79574441184663 2.67518976041077 0.97305317181896
H   -0.81552764445403 1.792539334809 -0.37114119171044
H   -2.3533109964717 4.36601982303485 0.5166741309272
*
