! B3LYP def2-SVP d3 EnGrad 
%pal nprocs 6 end 
*xyz 0 1 
C   -0.75296830594274 -0.44282012282759 0.0155270889952
H   -1.318317344282 -0.70096666005989 -0.88486805028004
H   -0.04662189653323 1.49945105680831 -0.85515040370857
C   0.00125727313404 0.86220605194774 0.03314825945648
C   0.75202919605638 -0.44122406380111 -0.06484745973846
H   0.05083991143166 1.41731051290819 0.97483948145468
H   1.31673312407871 -0.77906900329597 0.8091490557429
H   -1.22056049792626 -0.7815600569572 0.944900030748
H   1.21866253998346 -0.6980017147225 -1.0205910026702
*
