! B3LYP def2-SVP d3 EnGrad 
%pal nprocs 6 end 
*xyz 0 1 
C   -0.08694930078416 -0.08595705067457 0.10384675628529
C   0.59434059689522 1.17872979622303 0.1019426451442
C   1.9524828308094 1.27504733111031 0.38117393085524
C   2.71251595106283 0.14027454442908 0.68681204993423
C   2.0737081958076 -1.11200498925226 0.69826516146014
C   0.72681556648816 -1.23548230969269 0.40564319218493
O   -0.67554098983873 -0.35834555856185 -1.51421185890795
C   -1.91094432670474 0.3545713122269 -1.60983708017226
C   -2.36224463614426 -0.47066907861412 -0.48504644369772
C   -1.60518775789994 -0.15087734745373 0.72098597160076
H   0.0193867755215 2.0868359883562 -0.09895047278806
H   2.42528221158388 2.2613769830614 0.36679142741162
H   3.77673093418636 0.22514438606086 0.91523346039179
H   2.64562707835999 -2.01171882830171 0.94252320355134
H   0.24865823628134 -2.21855165862453 0.41079948607696
H   -1.8119696703193 1.43746273504726 -1.4130991170819
H   -2.82520637221176 -1.44166021850608 -0.67781216136801
H   -1.65629585425303 -0.89837349821015 1.52126915202528
H   -1.8446282737778 0.84352599636426 1.12489924926888
H   -2.39658119506253 0.18067146501237 -2.58122855217476
*
