! B3LYP def2-SVP d3 EnGrad 
%pal nprocs 6 end 
*xyz 0 1 
C   -1.13239063125868 0.66840504336711 2.4744138e-07
H   -1.13401781897039 1.24305245891866 0.93189144774455
H   -1.13401747814901 1.24305225393014 -0.93189096566432
C   -1.13239288849846 -0.66840488752909 3.6619639e-07
H   -1.13402099504342 -1.24305247181735 -0.93189080982344
H   -1.13402074469925 -1.24305277057012 0.93189129810283
F   1.8714964110567 1.24921764e-06 -2.44498685e-06
H   0.93851814556251 1.24483e-07 -1.3901055e-07
*
