! B3LYP def2-SVP d3 EnGrad 
%pal nprocs 6 end 
*xyz 0 1 
Si   -4.19097121e-06 9.713905244e-05 4.389212242e-05
H   0.64703101515441 -1.34185739029516 -0.06513164005174
H   1.0509026338081 1.05612188007925 0.06312837726755
H   -0.83959336989596 0.206315022508 -1.21493422008985
H   -0.85833607809533 0.07932334865547 1.21689359075162
*
