! B3LYP def2-SVP d3 EnGrad 
%pal nprocs 6 end 
*xyz 0 1 
C   1.90592406156366 0.50821970019177 -0.18312910959967
C   0.50269579099345 0.7844228248237 0.27902281655488
H   2.26748508013243 1.30927987194602 -0.85141215664285
H   1.96589648514866 -0.44847875092715 -0.72258004715192
H   2.60218835244601 0.46562676665206 0.67285900881834
C   -0.48103380120006 -0.08886728104963 0.09690681764449
O   -2.00499619820011 0.55290017672034 0.62848337688942
C   -0.91705448184768 -1.40035534902587 -0.17374882243627
H   -0.34430658164555 -2.21954158598509 0.27793409060535
H   -1.28140118021308 -1.61010813423885 -1.19041516501377
H   -2.0964388241798 -0.58652405430602 0.487479794884
H   -2.42423687894303 1.00951018409686 -0.12408974221531
H   0.3052781759451 1.72391563110186 0.80268913766332
*
