! B3LYP def2-SVP d3 EnGrad 
%pal nprocs 6 end 
*xyz 0 1 
C   -1.48048516448618 0.15304315028199 -0.25999335218207
O   -2.23868125488006 -0.25498113044417 -1.06365627741441
C   -0.19482997955703 -0.55083251257444 0.22197804212597
F   -0.27811410959475 -0.7498657864538 1.5534391765189
F   -1.63020854977811 1.3117134882911 0.38385047542839
C   1.09012398166854 0.26662220944144 -0.07591490859897
F   -0.09746290445453 -1.73211003755587 -0.39916847394381
F   1.06930970088479 0.65049138322581 -1.35731475584089
F   1.1456334546899 1.34744510943555 0.69626739726294
F   2.16777582550741 -0.4791758736476 0.13945567664393
*
