! B3LYP def2-SVP d3 EnGrad 
%pal nprocs 6 end 
*xyz 0 2 
C   -1.93816915969514 0.48759934470308 -1.13935733316888
C   -1.50042974892657 0.70132499619556 0.12233979893856
C   -1.6208109146031 -0.373494872446 1.22168503567624
C   -1.72476547191138 -1.80850505331253 0.62584599735461
C   -2.74211109038861 -1.85287934144326 -0.51830906669253
C   -2.43346145360861 -0.85384026596912 -1.62842258479974
H   -2.80162289565176 -2.87509787479709 -0.92750391945913
H   -3.7416620583145 -1.63137193443863 -0.1116537371952
H   -1.68638585096358 -1.26858786193749 -2.33265404826908
H   -3.33568786910818 -0.69669045790926 -2.24596368103871
C   -1.95046307591566 1.54922845147773 -2.21393878117189
H   -1.93593387971774 2.5739297788785 -1.82001517345949
H   -1.08465788699587 1.44264284329719 -2.89350683858668
H   -2.85140666044327 1.44640620308894 -2.84175184372538
C   -0.37255622962843 -2.48076029116089 0.26391480465027
C   -1.02198373686951 2.08064247540445 0.55857137808922
C   0.60797862041531 -1.73887718960789 -0.60170722153207
H   0.12038647830411 -2.78693617460535 1.19595647027956
C   0.28073889237722 2.60198453352528 -0.09431509248502
C   1.54840419926594 1.8342065817359 0.14971157679825
H   0.41898178916319 3.6457861265771 0.26729832695501
C   -0.45268364290737 -0.33644923021175 2.22708707134319
H   -0.49053795566126 0.55823765644485 2.86406080747777
H   -0.51468210248034 -1.20762432535896 2.89892578878639
C   -2.91203008063487 -0.06013224391052 2.01868420203712
H   -2.87684018226352 0.96131731310671 2.42927588773176
H   -3.80946554234001 -0.12870048797884 1.38757755427511
H   -3.02658455748386 -0.75653419077416 2.86645070360139
H   -1.81057113446804 2.82138054165444 0.33651331461915
H   -0.90605628266573 2.11051409503402 1.65009642010893
H   0.12554124407263 2.68716626268025 -1.17861067000876
C   2.47747310357823 1.6660858263562 -1.01887716694602
H   3.09587020725542 2.59187822654683 -1.09287924499413
C   3.44301419627342 0.47106021649996 -1.02443221294682
H   4.23449743736766 0.67989834750743 -1.76378742172143
H   3.96376289571723 0.39239883783006 -0.05533031348739
C   2.79726305821567 -0.87500416091944 -1.40110601426891
H   2.22222940110449 -0.7383665050256 -2.33226299495572
H   3.61456170074916 -1.58125024909043 -1.64274056389805
C   1.91593582665443 -1.52964689475201 -0.35962369313692
H   1.88716817294011 1.64154145163552 -1.95172207641974
H   0.22599660036057 -1.38122971398807 -1.56169005961062
C   2.14488974532421 1.87844552818274 1.52212539554889
H   2.8429653877012 2.73958328110775 1.618884983828
H   1.38148831861602 1.99467709757411 2.3047411247831
H   2.73331248750444 0.97912639238957 1.76470824900629
C   2.63742708966823 -1.97834997475118 0.8859213750071
H   3.46820490096967 -2.65733339672164 0.62346723642568
H   3.09281325915009 -1.12434143954366 1.41453139193562
H   1.9896197179604 -2.4997430565032 1.60170282859942
H   -0.63003122873752 -3.42705341148418 -0.25018722497985
H   -2.13432562538664 -2.44158140694501 1.4333185345232
H   0.51978258706206 -0.35361340384802 1.72436972057841
*
