! B3LYP def2-SVP d3 EnGrad 
%pal nprocs 6 end 
*xyz 0 1 
C   2.44537605978403 0.58243355430195 0.19472988649768
C   1.49412670548446 0.08355755413855 -0.9054738106582
C   0.08710480416195 -0.08874178226675 -0.36001141539645
C   -0.26680698572319 -1.42185453688859 0.25727942422258
O   -0.70689376956427 0.83488134963717 -0.40367546261817
H   3.46107415688089 0.72496954787478 -0.20465754946784
H   2.51162308964334 -0.13254293361716 1.03097666156602
H   2.0986147997167 1.54679012481647 0.5977245454935
H   0.539797626451 -1.77553780844949 0.919811462553
H   -0.36446623882027 -2.16900586145206 -0.54998314689394
H   -1.22067934209896 -1.34071466121856 0.7958938633219
H   1.44789734266118 0.82017184209504 -1.72218131004105
H   1.85991369716857 -0.87332270330479 -1.31364610476736
H   -2.37035814109232 0.48875952288671 0.4751213488681
O   -3.02186575449884 0.10426179010733 1.09343576632966
H   -2.77271605015426 0.5054900013394 1.93730984099055
*
