! B3LYP def2-SVP d3 EnGrad 
%pal nprocs 6 end 
*xyz 0 1 
C   -1.3802927801013 -0.22530938843005 -0.40383302046677
C   1.70956448819009 0.02807187729487 -0.2178199388592
C   -2.25787732047847 0.70390047121233 -0.02156376134965
C   -0.37703863607418 -0.87817572406434 0.50672101532507
C   1.47563431635712 1.3008343242136 0.12837409863688
H   -3.00179585622068 1.10946795966067 -0.71263914873602
H   -2.26637204250426 1.09502472909735 1.00192590502659
H   -0.28859082718492 -0.3250420295995 1.46033771111778
H   0.53013004503789 1.65001320577869 0.54284704720979
H   -0.70851141665644 -1.9036366484112 0.74104497679541
H   2.26466398345869 2.03769616867356 -0.03006576186813
H   -1.37940126073082 -0.59824099324369 -1.43530254216038
H   2.66334186898814 -0.27876027161356 -0.65932194779825
O   0.89878443791917 -1.04834868056868 -0.09464463287308
*
