! B3LYP def2-SVP d3 EnGrad 
%pal nprocs 6 end 
*xyz 0 1 
C   -1.32079973217601 0.42567773495474 -0.23631001264401
C   0.0452560299562 1.04726493821129 -0.4973776338658
C   1.08682218603532 -0.0471865565388 -0.3764137510888
C   1.03842753635559 1.06846591197701 0.63883663510874
C   -1.01780113872525 -0.90484492295815 0.48790070024425
C   0.36564398034658 -1.34606339980396 -0.03954774637912
H   0.12745408242045 1.81858223535424 -1.2694584651686
H   -1.99411576893326 1.0759991034116 0.34771581508966
H   -1.81576790233182 0.23295050117392 -1.20411543944536
H   -0.97250304016204 -0.74026613166639 1.57642313707908
H   -1.79641128922781 -1.66520837673018 0.3206966163454
H   0.25308703570688 -1.94124088779108 -0.9626295847099
H   0.90967970532839 -1.97429427656022 0.68626995277231
H   1.83250661383491 1.81880817893873 0.58870869451625
H   0.69657505341507 0.85610172190859 1.65742228708079
H   1.94153364815682 -0.08825277388137 -1.05858320493491
*
