! B3LYP def2-SVP d3 EnGrad 
%pal nprocs 6 end 
*xyz 0 1 
C   -0.92694646961547 -0.03024865225057 -4.04061183e-06
C   0.12376048259271 -0.94610646807496 4.01998235e-06
O   1.73856038010301 0.35323318459638 7.13353213e-06
N   1.13092200111328 1.41984968445806 6.49654e-09
N   0.00054475706435 1.74439748980376 -7.27769764e-06
H   -1.48090651838009 0.15553667543167 0.92344439781365
H   -1.48089875170957 0.1555290369448 -0.92345868407952
H   0.44747854461981 -1.42609171246583 0.92552680721734
H   0.44748557421197 -1.42609923844332 -0.92551236265302
*
