! B3LYP def2-SVP d3 EnGrad 
%pal nprocs 6 end 
*xyz 0 1 
C   -0.05062740915521 -0.53741411559442 -0.00818195708819
O   -1.19358165523054 0.25553620603839 0.1670048909149
N   1.13329770740569 0.2899564672468 -0.10003612251284
H   1.41970834289203 0.63729343224606 0.8154156464882
H   -0.05910494794143 -1.2476959211931 0.84364542769151
H   -0.09632484522076 -1.14454814571343 -0.93796566998405
H   -1.11222842013041 0.97819029490678 -0.4736566954063
H   1.92009622738063 -0.21146621793709 -0.50974352010324
*
