! B3LYP def2-SVP d3 EnGrad 
%pal nprocs 6 end 
*xyz 0 1 
C   2.13342647608445 0.01633163491782 -0.190684568358
C   0.89689498710353 0.62100138261653 0.46773998427661
C   -0.43412839290266 -0.00170648928413 0.02171355112509
C   -0.56752899823844 -1.4810774639944 0.3704154627686
O   -0.59473201162522 0.08095432884364 -1.38140365947759
H   2.03049988413955 0.01998323311779 -1.2868147995383
H   2.2971878284273 -1.02657829469743 0.12412494560561
H   3.03756492110919 0.58654658235403 0.07356252983735
H   0.20451597880396 -2.08039595077005 -0.13213034872474
H   -1.54846993842157 -1.84951998040731 0.02940932785274
H   -0.48915466261334 -1.62309275318984 1.45771135789236
H   -0.53463078915951 1.01817385993338 -1.61730537246461
H   0.82799656310009 1.69972581555737 0.23890181057861
H   -2.28659102094474 0.38627806728372 0.41347055725789
O   -1.43157304748085 0.75953625502882 0.67107454389151
H   0.95673922261828 0.55085877269004 1.56603567747684
*
