! B3LYP def2-SVP d3 EnGrad 
%pal nprocs 6 end 
*xyz 0 1 
N   1.2547541584091 -0.26607967937561 0.78601693045588
B   1.29869713551811 0.03188714425505 -0.72594907892834
B   -1.27099684359709 0.30648927535368 -0.7088804489946
N   -1.28440050356687 -0.1024368472529 0.77764564745536
H   -0.0198792405757 -0.23485357894087 0.99917286595066
H   1.72489345561453 0.43440026773591 1.35834823132849
H   1.63120473178194 -1.17986298987871 1.03574868212541
H   1.80325787671357 1.09772098119485 -1.00914899602948
H   1.58964573546798 -0.93057427028746 -1.40488878359354
H   0.01841766358724 0.24020599914582 -1.11760524937613
H   -1.51903908105542 1.4797928921612 -0.89191432954712
H   -1.78045836527799 -0.50353154797207 -1.45391365146376
H   -1.76885902067449 -0.98064235928665 0.96068701880131
H   -1.67723770234491 0.60748471314773 1.39468116181588
*
