! B3LYP def2-SVP d3 EnGrad 
%pal nprocs 6 end 
*xyz 0 1 
C   2.166143389e-05 -1.21603754708863 6.68128373e-05
H   0.00011378115219 -1.8858313646189 -0.88203506618889
H   -4.576825514e-05 -1.88573042315354 0.8822453924905
C   1.18122678125941 -0.28386306889557 0.00012094241305
H   2.22138827086327 -0.61272803478175 0.0002321041474
C   0.73494190304361 0.99330521323618 8.98616546e-06
H   1.35404983091254 1.89275186403684 1.275956625e-05
C   -1.18121663880842 -0.28390488948998 -9.164912985e-05
H   -2.22136645864193 -0.61280667354972 -0.00016678231383
C   -0.73497714808075 0.993279385062 -0.00012270632539
H   -1.35411621487868 1.89270453924309 -0.00022879366199
*
