! B3LYP def2-SVP d3 EnGrad 
%pal nprocs 6 end 
*xyz 0 1 
C   1.47645898147958 0.08164988823451 0.23366776879569
C   0.65140023287841 1.33211201445399 0.0643798339542
C   -0.66645487743185 1.31930133838826 -0.1769445396288
C   -1.48010012158388 0.05381014546532 -0.2754272331885
C   0.72832298715621 -1.17264497154767 -0.23579532882956
C   -0.72017213668881 -1.16553907644567 0.2622397439596
H   1.17335193139377 2.29248172106369 0.14486496708488
H   2.42960040429207 0.18813191091216 -0.31377689979547
H   1.76379544235085 -0.02417049845813 1.29847818562462
H   0.7277439370149 -1.20278732904871 -1.3404383049773
H   1.25403201296051 -2.07990687714479 0.104561466203
H   -0.71951532367487 -1.13478713443225 1.3668375884388
H   -1.23735176933591 -2.0951125738772 -0.02709228931641
H   -2.43375484282584 0.18177991512955 0.26661325780893
H   -1.76749355947028 -0.11358866194575 -1.33232079937801
H   -1.19708629851487 2.26879818925273 -0.31125241675569
*
