! B3LYP def2-SVP d3 EnGrad 
%pal nprocs 6 end 
*xyz 0 1 
C   -0.06510099929837 2.0332276093564 -2.15728098094694
C   0.3843205566783 0.80235226928461 -1.31565996695464
O   1.31883145086519 0.11675952126631 -1.72652683306331
F   0.71289355563248 2.22700243132337 -3.22345843382885
F   -0.03880149799254 3.15388882589077 -1.41674761410313
F   -1.32637035387321 1.85903171471425 -2.59277527253596
O   -0.3171360232057 0.66001849920759 -0.26437298942745
C   -0.72687946671408 -1.28745813441364 0.56746561243544
C   -1.2200220478969 -0.84565550775384 1.88988285656203
N   1.52781005350295 -0.89654570890443 0.85922048865585
H   -1.37604860423472 -1.07773684759354 -0.2803320888474
H   -0.21967947330989 -2.24692497222 0.50232338141438
H   -2.18325065089773 -1.3667282494314 2.06410782765319
H   -0.53459813220378 -1.0947580595427 2.71027487081189
H   -1.43186385727194 0.23237428491545 1.88257480351537
H   2.18870834117753 -1.54848491057399 1.2868477998586
H   1.75022812374545 -0.71771564798308 -0.13398898679078
H   1.55695902529695 -0.00264711754216 1.34844552559169
*
