! B3LYP def2-SVP d3 EnGrad 
%pal nprocs 6 end 
*xyz 0 1 
H   0.47164250775183 0.98483688472378 -0.37845075053848
C   0.2317174975929 1.08926104491854 0.68266283054098
C   0.64247159141133 0.18229232985106 1.57557931604723
H   -0.34717125179292 1.95329087717827 1.01128667217194
H   0.40379761205582 0.29397433113266 2.64326111878959
O   1.36249694175728 -0.9173861675224 1.25318860573391
H   1.5529879634849 -1.42063532382252 2.06663753885431
O   1.20141606890202 -2.67303707242048 3.36248898990746
C   0.36408043318531 -3.38807141440404 2.8669016209782
H   -0.0501009569468 -4.26684813605597 3.4155356209001
H   -0.0312124074017 -3.20289535357886 1.8410094366147
*
