! B3LYP def2-SVP d3 EnGrad 
%pal nprocs 6 end 
*xyz 0 1 
C   -0.71006571292191 -1.68079575099325 -0.29371218408898
C   -1.54685670595383 -0.56428445316426 -0.4642644367584
C   -1.23806509601018 0.62865647921295 0.15552642757396
C   -1.51620511724318 1.61973812765285 0.98518560908341
C   2.36318719485309 0.20193308325421 0.28578053759958
C   1.34967012722065 0.12986161318729 -0.61046054265189
H   -2.17559857226038 -0.51450539342305 -1.36483420281027
H   -0.3086478258303 -1.89575523255868 0.70453577587079
H   -0.84405277626325 -2.55537578177989 -0.93813130889409
H   3.3807064202173 0.48902743296452 0.0012834412818
H   2.19944066775927 -0.03078701939869 1.34438628388623
H   0.54530089148346 -0.90436600403581 -0.58770359524129
H   1.56106005995504 0.38706877716077 -1.6592648263799
H   -0.85099929983933 2.48506293185893 1.08501009747056
H   -2.41133477874388 1.60656901116008 1.61988371594936
H   0.20246052357741 0.59795217890201 -0.26322079189088
*
