! B3LYP def2-SVP d3 EnGrad 
%pal nprocs 6 end 
*xyz 0 1 
C   -0.64833957118468 -1.09980282862691 0.5330215450068
H   -1.58300075317102 -1.3254418005219 1.05941553034247
C   0.26807584501475 -0.33922235659862 1.15906144153705
H   1.23653172262293 -0.10957747072002 0.70443877500635
H   0.07891493776327 0.07157082251094 2.15364552304468
C   -0.53066229078525 -1.66133251318687 -0.8185340853317
C   0.23695316669791 -1.17491432668489 -1.80639793154848
H   0.8496371226745 -0.27765944370917 -1.67634036296244
H   -1.16036683288398 -2.53429655561143 -1.02511176487244
H   0.2706980016776 -1.65745463760311 -2.78634641681792
S   -1.28120181976473 1.79453864403203 -0.42853358293738
O   -2.68783099369493 1.39088111403245 -0.34835514288698
O   -0.80351129496639 2.79763462268749 0.52861993242001
*
