! B3LYP def2-SVP d3 EnGrad 
%pal nprocs 6 end 
*xyz 0 1 
H   -1.87356380547048 0.80578766822504 -0.27993940166503
C   -0.82138569044346 0.5252254607326 -0.47226959903528
C   -0.70613429460986 -0.97609473425804 -0.40314143552758
H   -0.62343885299505 0.80811433299247 -1.52485747201856
H   -1.50651839450951 -1.55124996063118 -0.93811341248153
O   0.18482904734931 -1.56384566241364 0.1676033352928
H   1.59184873746617 2.89265925e-06 0.33708461471509
O   1.49063004107147 0.95189819678208 0.18084076965546
C   0.14814710381942 1.24755773244408 0.46700666583863
H   0.01943659998767 2.33658478093901 0.35745142978963
H   -0.11806549166566 0.9973192925283 1.51535950543642
*
