! B3LYP def2-SVP d3 EnGrad 
%pal nprocs 6 end 
*xyz 0 1 
C   -0.57278942544397 -6.96267193e-06 0.64769278529283
H   -0.67060849178478 0.91772144022705 1.23450551117855
H   -0.67061179454838 -0.91775161769606 1.23447975980137
C   -0.93791081550729 1.164348964e-05 -0.68152247576562
H   -0.99527000489361 -0.93217388177343 -1.24952330391848
H   -0.9952668785801 0.93221265351941 -1.24949815422559
C   1.32228334575966 -9.03384244e-06 0.46561973450466
F   1.76008372977824 -1.05742540350201 -0.20089004375507
F   1.76009033522024 1.05742116224976 -0.20086381311266
*
