! B3LYP def2-SVP d3 EnGrad 
%pal nprocs 6 end 
*xyz 0 1 
P   -0.52105577869669 -0.20585864282991 -0.2296326244461
H   -0.3839337677661 -0.13871417512049 1.19319993568014
C   1.24103144016823 0.23904300562023 -0.6476863702378
C   -0.42942572325115 -2.06469635729116 -0.37900635280115
H   1.39843445128595 0.09354334521154 -1.72847780212822
H   1.4004117360854 1.30435203981496 -0.42271894638
H   1.98127278829752 -0.36323683909155 -0.09763747889976
H   -0.36057172235677 -2.33159274383519 -1.44575539827669
H   0.43396343775696 -2.49992347461723 0.14900003490968
H   -1.35384280297568 -2.51276311143043 0.0174768347453
H   -1.10214797501308 2.80270717196216 -0.63153779375993
C   -0.56249335879941 3.51546044882363 0.00042023692891
C   -0.45592765862787 3.33054181441273 1.31719057673233
H   -0.11395402248864 4.3818945467241 -0.49693697336158
H   0.08333481291334 4.03530229942901 1.9587054074248
H   -0.90597885653195 2.46214667221758 1.8089167138701
*
