! B3LYP def2-SVP d3 EnGrad 
%pal nprocs 6 end 
*xyz 0 1 
C   -1.89813118289482 -1.092913559e-05 0.67283724924393
H   -1.81927900990935 0.93008829790452 1.24395384192263
H   -1.81928862688787 -0.93013595094994 1.2439135205899
C   -2.08256815554012 1.714239596e-05 -0.64903672857735
H   -2.15946120446719 -0.93143891532983 -1.21930657836398
H   -2.15945182434704 0.93149707318612 -1.21926876809717
C   1.14145573095093 7.70337433e-06 0.58027956769003
F   1.29359293029581 -1.03134258717932 -0.19856865440786
F   1.29360134279964 1.03132816573377 -0.19860645000014
*
