! B3LYP def2-SVP d3 EnGrad 
%pal nprocs 6 end 
*xyz 0 1 
Si   0.39129185991423 -0.03830142751412 -0.52058420657815
H   0.59204875515446 -1.3464516639207 0.17575269647482
H   0.99626059367091 1.05315426791575 0.30359903423577
H   -1.1231761139117 0.21730406125472 -0.53274525145928
H   -0.85642509482789 0.11429476226435 0.57397772732685
*
