! B3LYP def2-SVP d3 EnGrad 
%pal nprocs 6 end 
*xyz 0 1 
C   -1.00876677388607 -0.69378864609145 0.18444242810383
C   1.61441367358203 0.5876975434892 -1.05785205332838
C   -0.7350764665907 0.76781657318524 -0.04414249754254
C   -1.72010229868713 -1.1841480388036 1.20334194371806
C   0.75214605878801 1.13024759733298 0.05622485097037
H   -1.08924823700706 1.05110659401877 -1.05113070320186
H   -1.30228292864666 1.37045546793082 0.68340425806758
H   -2.17393578279528 -0.5274691624615 1.95435172043982
H   1.18864756137327 0.78928126966362 1.01424934420665
H   -1.88418042867453 -2.2590911104451 1.3228804741437
H   0.89577365809996 2.22841487525607 0.0529914052527
H   -0.57142179851629 -1.37809472249272 -0.55140488425819
H   2.7066639293892 0.83428498283787 -0.96276435447131
O   1.20960883357125 -0.04921822342018 -1.99853193210047
*
