! B3LYP def2-SVP d3 EnGrad 
%pal nprocs 6 end 
*xyz 0 1 
C   0.50390856959638 -0.1586441563643 0.48249798664851
C   1.08949317863913 0.80970173121893 -0.37689190566145
C   2.39820458746187 0.66139111811036 -0.83478277619302
C   3.16724553267432 -0.44618239735368 -0.46044804970631
C   2.60719313691568 -1.40691438316112 0.39373779093007
C   1.30351571570937 -1.26992497862062 0.8608224634801
O   -0.73324754582945 -0.05345574144464 0.92359138600375
C   -2.79798338924383 1.55988234356288 0.30857761105331
C   -2.12039388913229 0.45447942416175 -0.22714608371949
C   -2.90316288213749 -0.70210233583816 -0.12663596741384
H   0.51269760880176 1.7003420053226 -0.63858845193676
H   2.82839234020501 1.42815003282215 -1.485781323327
H   4.19267236162199 -0.5552650099163 -0.82086760500231
H   3.19945846530508 -2.27499371034388 0.697717200155
H   0.85433851721135 -2.0149696930628 1.52181798706375
H   -3.46986833774113 1.42958513418309 1.15950403376006
H   -1.51713778644894 0.59725343064551 -1.12824666933871
H   -2.90570579837552 -1.47395198332837 -0.90178899324638
H   -3.5372627796873 -0.85161032808534 0.75027876144994
H   -2.672357605546 2.56722949749196 -0.09736739499923
*
