! B3LYP def2-SVP d3 EnGrad 
%pal nprocs 6 end 
*xyz 0 1 
C   1.335417252e-05 -1.837431181892 0.6703130281102
H   3.589882694e-05 -2.76024035855846 1.25686671707068
C   -1.949849441e-05 -0.51028990979924 1.36468711438348
H   -0.89977736510594 -0.32039652284719 1.97046075858213
H   0.89969813923676 -0.32037992504268 1.97051534654084
C   1.459541179e-05 -1.83743143086562 -0.6703134501681
C   -1.640351354e-05 -0.51029011763376 -1.36468774866388
H   -0.89977185604323 -0.32039734862735 -1.97046542949888
H   3.680498079e-05 -2.76024085648228 -1.25686662719525
H   0.89970354675253 -0.3203814534521 -1.97051268060824
S   1.324936708e-05 0.73291847335398 2.0515423e-07
O   -1.27997392661157 1.45010604550717 -2.84143e-08
O   1.28004447102028 1.45002758633952 2.80470713e-06
*
