! B3LYP def2-SVP d3 EnGrad 
%pal nprocs 6 end 
*xyz 0 1 
C   -1.58572291100237 -0.84160847213746 -3.39907657e-06
C   -0.5305697119271 -1.65722303210517 4.34652695e-06
O   1.82767320854265 0.45290828278285 -2.187280664e-05
N   0.97442679271533 1.26997020651757 6.031628749e-05
N   0.1572175531995 2.0501381356986 -4.056288043e-05
H   -2.04209833505612 -0.48866007686699 0.93039929342888
H   -2.04208985274357 -0.48866569200588 -0.93041253064561
H   -0.07175706986641 -2.0073967924413 0.93006512898811
H   -0.07174967386193 -2.00740255964219 -0.9300507200222
*
